/*--------------------------------*- C++ -*----------------------------------*\
| =========                 |                                                 |
| \\      /  F ield         | OpenFOAM: The Open Source CFD Toolbox           |
|  \\    /   O peration     | Version:  2.1.1                                 |
|   \\  /    A nd           | Web:      www.OpenFOAM.org                      |
|    \\/     M anipulation  |                                                 |
\*---------------------------------------------------------------------------*/
FoamFile
{
  version     2.0;
  format      ascii;
  class       dictionary;
  location    "constant";
  object      sourcesProperties;
}
// * * * * * * * * * * * * * * * * * * * * * * * * * * * * * * * * * * * * * //
 
TSource
{
    type            scalarExplicitSource;
    active          true;
    timeStart       0;
    duration        1000000;
    selectionMode   points;
    points
    (
        (1971.5 1496.2 0.2)
    );

    scalarExplicitSourceCoeffs
    {
        volumeMode      absolute;
        injectionRate
        {
            T   1.0;
        }
    }
}
Tr01Source
{
    type            scalarExplicitSource;
    active          true;
    timeStart       0;
    duration        1000000;
    selectionMode   points;
    points
    (
        (1920.4 1372.2 0.2)
    );

    scalarExplicitSourceCoeffs
    {
        volumeMode      absolute;
        injectionRate
        {
            Tr01   1.0;
        }
    }
}
Tr02Source
{
    type            scalarExplicitSource;
    active          true;
    timeStart       0;
    duration        1000000;
    selectionMode   points;
    points
    (
        (2088.6 1368.6 0.2)
    );

    scalarExplicitSourceCoeffs
    {
        volumeMode      absolute;
        injectionRate
        {
            Tr02   1.0;
        }
    }
}
Tr03Source
{
    type            scalarExplicitSource;
    active          true;
    timeStart       0;
    duration        1000000;
    selectionMode   points;
    points
    (
        (1625.7 1611.9 0.2)
    );

    scalarExplicitSourceCoeffs
    {
        volumeMode      absolute;
        injectionRate
        {
            Tr03   1.0;
        }
    }
}
Tr04Source
{
    type            scalarExplicitSource;
    active          true;
    timeStart       0;
    duration        1000000;
    selectionMode   points;
    points
    (
        (1765.5 1610.9 0.2)
    );

    scalarExplicitSourceCoeffs
    {
        volumeMode      absolute;
        injectionRate
        {
            Tr04   1.0;
        }
    }
}
Tr05Source
{
    type            scalarExplicitSource;
    active          true;
    timeStart       0;
    duration        1000000;
    selectionMode   points;
    points
    (
        (1904.1 1609.2 0.2)
    );

    scalarExplicitSourceCoeffs
    {
        volumeMode      absolute;
        injectionRate
        {
            Tr05   1.0;
        }
    }
}
Tr06Source
{
    type            scalarExplicitSource;
    active          true;
    timeStart       0;
    duration        1000000;
    selectionMode   points;
    points
    (
        (1982.9 1608.7 0.2)
    );

    scalarExplicitSourceCoeffs
    {
        volumeMode      absolute;
        injectionRate
        {
            Tr06   1.0;
        }
    }
}
Tr07Source
{
    type            scalarExplicitSource;
    active          true;
    timeStart       0;
    duration        1000000;
    selectionMode   points;
    points
    (
        (2089.5 1607 0.2)
    );

    scalarExplicitSourceCoeffs
    {
        volumeMode      absolute;
        injectionRate
        {
            Tr07   1.0;
        }
    }
}
Tr08Source
{
    type            scalarExplicitSource;
    active          true;
    timeStart       0;
    duration        1000000;
    selectionMode   points;
    points
    (
        (1745.6 1745.5 0.2)
    );

    scalarExplicitSourceCoeffs
    {
        volumeMode      absolute;
        injectionRate
        {
            Tr08   1.0;
        }
    }
}
Tr09Source
{
    type            scalarExplicitSource;
    active          true;
    timeStart       0;
    duration        1000000;
    selectionMode   points;
    points
    (
        (1886.1 1741.4 0.2)
    );

    scalarExplicitSourceCoeffs
    {
        volumeMode      absolute;
        injectionRate
        {
            Tr09   1.0;
        }
    }
}
Tr10Source
{
    type            scalarExplicitSource;
    active          true;
    timeStart       0;
    duration        1000000;
    selectionMode   points;
    points
    (
        (1980.9 1741.9 0.2)
    );

    scalarExplicitSourceCoeffs
    {
        volumeMode      absolute;
        injectionRate
        {
            Tr10   1.0;
        }
    }
}
Tr11Source
{
    type            scalarExplicitSource;
    active          true;
    timeStart       0;
    duration        1000000;
    selectionMode   points;
    points
    (
        (2065.9 1720.1 0.2)
    );

    scalarExplicitSourceCoeffs
    {
        volumeMode      absolute;
        injectionRate
        {
            Tr11   1.0;
        }
    }
}
Tr12Source
{
    type            scalarExplicitSource;
    active          true;
    timeStart       0;
    duration        1000000;
    selectionMode   points;
    points
    (
        (1766.4 1841.6 0.2)
    );

    scalarExplicitSourceCoeffs
    {
        volumeMode      absolute;
        injectionRate
        {
            Tr12   1.0;
        }
    }
}
Tr13Source
{
    type            scalarExplicitSource;
    active          true;
    timeStart       0;
    duration        1000000;
    selectionMode   points;
    points
    (
        (1907.3 1843.6 0.2)
    );

    scalarExplicitSourceCoeffs
    {
        volumeMode      absolute;
        injectionRate
        {
            Tr13   1.0;
        }
    }
}
Tr14Source
{
    type            scalarExplicitSource;
    active          true;
    timeStart       0;
    duration        1000000;
    selectionMode   points;
    points
    (
        (2089.7 1833.8 0.2)
    );

    scalarExplicitSourceCoeffs
    {
        volumeMode      absolute;
        injectionRate
        {
            Tr14   1.0;
        }
    }
}
Tr15Source
{
    type            scalarExplicitSource;
    active          true;
    timeStart       0;
    duration        1000000;
    selectionMode   points;
    points
    (
        (1750.1 1980.2 0.2)
    );

    scalarExplicitSourceCoeffs
    {
        volumeMode      absolute;
        injectionRate
        {
            Tr15   1.0;
        }
    }
}
Tr16Source
{
    type            scalarExplicitSource;
    active          true;
    timeStart       0;
    duration        1000000;
    selectionMode   points;
    points
    (
        (1908.3 1955.4 0.2)
    );

    scalarExplicitSourceCoeffs
    {
        volumeMode      absolute;
        injectionRate
        {
            Tr16   1.0;
        }
    }
}
Tr17Source
{
    type            scalarExplicitSource;
    active          true;
    timeStart       0;
    duration        1000000;
    selectionMode   points;
    points
    (
        (2066.1 1950.3 0.2)
    );

    scalarExplicitSourceCoeffs
    {
        volumeMode      absolute;
        injectionRate
        {
            Tr17   1.0;
        }
    }
}
Tr18Source
{
    type            scalarExplicitSource;
    active          true;
    timeStart       0;
    duration        1000000;
    selectionMode   points;
    points
    (
        (1888.4 2090.8 0.2)
    );

    scalarExplicitSourceCoeffs
    {
        volumeMode      absolute;
        injectionRate
        {
            Tr18   1.0;
        }
    }
}
Tr19Source
{
    type            scalarExplicitSource;
    active          true;
    timeStart       0;
    duration        1000000;
    selectionMode   points;
    points
    (
        (2062.6 2090.3 0.2)
    );

    scalarExplicitSourceCoeffs
    {
        volumeMode      absolute;
        injectionRate
        {
            Tr19   1.0;
        }
    }
}
// ************************************************************************* //
